/*--------------------------------*- C++ -*----------------------------------*\
| =========                 |                                                 |
| \      /  F ield         | OpenFOAM: The Open Source CFD Toolbox           |
|  \    /   O peration     | Version: 2406                                   |
|   \  /    A nd           | Website:  www.openfoam.com                      |
|    \/     M anipulation  |                                                 |
\*---------------------------------------------------------------------------*/
FoamFile
{
    version     2.0;
    format      ascii;
    class       dictionary;
    object      blockMeshDict;
}
convertToMeters 1.0;

vertices
(
    (0.0 0.0 0.0)
    (1.0 0.0 0.0)
    (8.0 0.0 0.0)
    (0.0 1.0 0.0)
    (1.0 1.0 0.0)
    (8.0 1.0 0.0)
    (0.0 2.0 0.0)
    (1.0 2.0 0.0)
    (8.0 2.0 0.0)
    (0.0 3.0 0.0)
    (1.0 3.0 0.0)
    (8.0 3.0 0.0)
    (0.0 4.0 0.0)
    (1.0 4.0 0.0)
    (8.0 4.0 0.0)
    (0.0 5.0 0.0)
    (1.0 5.0 0.0)
    (8.0 5.0 0.0)
    (0.0 6.0 0.0)
    (1.0 6.0 0.0)
    (8.0 6.0 0.0)
    (0.0 0.0 0.01)
    (1.0 0.0 0.01)
    (8.0 0.0 0.01)
    (0.0 1.0 0.01)
    (1.0 1.0 0.01)
    (8.0 1.0 0.01)
    (0.0 2.0 0.01)
    (1.0 2.0 0.01)
    (8.0 2.0 0.01)
    (0.0 3.0 0.01)
    (1.0 3.0 0.01)
    (8.0 3.0 0.01)
    (0.0 4.0 0.01)
    (1.0 4.0 0.01)
    (8.0 4.0 0.01)
    (0.0 5.0 0.01)
    (1.0 5.0 0.01)
    (8.0 5.0 0.01)
    (0.0 6.0 0.01)
    (1.0 6.0 0.01)
    (8.0 6.0 0.01)
);

blocks
(
    hex (0 1 4 3 21 22 25 24) (100 100 1) simpleGrading (1 1 1)
    hex (1 2 5 4 22 23 26 25) (100 100 1) simpleGrading (1 1 1)
    hex (3 4 7 6 24 25 28 27) (100 100 1) simpleGrading (1 1 1)
    hex (4 5 8 7 25 26 29 28) (100 100 1) simpleGrading (1 1 1)
    hex (6 7 10 9 27 28 31 30) (100 100 1) simpleGrading (1 1 1)
    hex (7 8 11 10 28 29 32 31) (100 100 1) simpleGrading (1 1 1)
    hex (9 10 13 12 30 31 34 33) (100 100 1) simpleGrading (1 1 1)
    hex (10 11 14 13 31 32 35 34) (100 100 1) simpleGrading (1 1 1)
    hex (12 13 16 15 33 34 37 36) (100 100 1) simpleGrading (1 1 1)
    hex (13 14 17 16 34 35 38 37) (100 100 1) simpleGrading (1 1 1)
    hex (15 16 19 18 36 37 40 39) (100 100 1) simpleGrading (1 1 1)
    hex (16 17 20 19 37 38 41 40) (100 100 1) simpleGrading (1 1 1)
);

edges
(
);

boundary
(
    absorbingWall
    {
        type wall;
        faces
        (
            (0 3 24 21)
            (3 6 27 24)
            (6 9 30 27)
            (9 12 33 30)
            (12 15 36 33)
            (15 18 39 36)
            (2 5 26 23)
            (5 8 29 26)
            (8 11 32 29)
            (11 14 35 32)
            (14 17 38 35)
            (17 20 41 38)
            (0 1 22 21)
            (18 19 40 39)
        );
    }
    reflectingWall
    {
        type wall;
        faces
        (
            (1 2 23 22)
            (19 20 41 40)
        );
    }
    frontAndBack
    {
        type empty;
        faces
        (
            (0 1 4 3)
            (21 22 25 24)
            (1 2 5 4)
            (22 23 26 25)
            (3 4 7 6)
            (24 25 28 27)
            (4 5 8 7)
            (25 26 29 28)
            (6 7 10 9)
            (27 28 31 30)
            (7 8 11 10)
            (28 29 32 31)
            (9 10 13 12)
            (30 31 34 33)
            (10 11 14 13)
            (31 32 35 34)
            (12 13 16 15)
            (33 34 37 36)
            (13 14 17 16)
            (34 35 38 37)
            (15 16 19 18)
            (36 37 40 39)
            (16 17 20 19)
            (37 38 41 40)
        );
    }
);

mergePatchPairs
(
);
