/*--------------------------------*- C++ -*----------------------------------*\
| =========                 |                                                 |
| \\      /  F ield         | OpenFOAM: The Open Source CFD Toolbox           |
|  \\    /   O peration     |                                                 |
|   \\  /    A nd           |                                                 |
|    \\/     M anipulation  |                                                 |
\*---------------------------------------------------------------------------*/
FoamFile
{
    version     2.0;
    format      ascii;
    class       dictionary;
    object      fvSolution;
}

solvers
{
    pa
    {
        solver          PCG;
        preconditioner  DIC;
        tolerance       1e-8;
        relTol          0;
    }
    U
    {
        solver          PBiCG;
        preconditioner  DILU;
        tolerance       1e-8;
        relTol          0;
    }
}

PIMPLE
{
    // The following settings can be adjusted as needed.
    momentumPredictor yes;
    nCorrectors             2;
    nNonOrthogonalCorrectors 0;
    pRefCell                0;
    pRefValue               0;
    // Optional: maximum Courant number settings
    maxCo              1;
    maxAlphaCo         1;
}

