/*--------------------------------*- C++ -*----------------------------------*\
| =========                 |                                                 |
| \\      /  F ield         | OpenFOAM: The Open Source CFD Toolbox           |
|  \\    /   O peration     | Version: 2406                                   |
|   \\  /    A nd           |                                                 |
|    \\/     M anipulation  |                                                 |
\*---------------------------------------------------------------------------*/
FoamFile
{
    version 2.0;
    format ascii;
    class dictionary;
    object topoSetDict;
}

actions
(
    {
        name        wallDamping;
        action      new;
        type        cellSet;        
        source      patchToCell;    
        sourceInfo
        {
            patch "absorbingWall";
        }
    }
    // ... etc.
);


// ************************************************************************* //

